/*--------------------------------*- C++ -*----------------------------------*\
| =========                 |                                                 |
| \\      /  F ield         | OpenFOAM: The Open Source CFD Toolbox           |
|  \\    /   O peration     | Version:  2.3.0                                 |
|   \\  /    A nd           | Web:      www.OpenFOAM.org                      |
|    \\/     M anipulation  |                                                 |
\*---------------------------------------------------------------------------*/
FoamFile
{
    version     2.0;
    format      ascii;
    class       polyBoundaryMesh;
    location    "constant/polyMesh";
    object      boundary;
}
// * * * * * * * * * * * * * * * * * * * * * * * * * * * * * * * * * * * * * //

7
(
    bottom
    {
        type            wall;
        inGroups        1(wall);
        nFaces          0;
        startFace       10150;
    }
    top
    {
        type            wall;
        inGroups        1(wall);
        nFaces          51;
        startFace       10150;
    }
    left
    {
        type            wall;
        inGroups        1(wall);
        nFaces          0;
        startFace       10201;
    }
    right
    {
        type            wall;
        inGroups        1(wall);
        nFaces          101;
        startFace       10201;
    }
    frontAndBack
    {
        type            empty;
        inGroups        1(empty);
        nFaces          10302;
        startFace       10302;
    }
    procBoundary3to1
    {
        type            processor;
        inGroups        1(processor);
        nFaces          51;
        startFace       20604;
        matchTolerance  0.0001;
        transform       unknown;
        myProcNo        3;
        neighbProcNo    1;
    }
    procBoundary3to2
    {
        type            processor;
        inGroups        1(processor);
        nFaces          101;
        startFace       20655;
        matchTolerance  0.0001;
        transform       unknown;
        myProcNo        3;
        neighbProcNo    2;
    }
)

// ************************************************************************* //
