/*--------------------------------*- C++ -*----------------------------------*\
| =========                 |                                                 |
| \\      /  F ield         | OpenFOAM: The Open Source CFD Toolbox           |
|  \\    /   O peration     | Version:  2.3.0                                 |
|   \\  /    A nd           | Web:      www.OpenFOAM.org                      |
|    \\/     M anipulation  |                                                 |
\*---------------------------------------------------------------------------*/
FoamFile
{
    version     2.0;
    format      ascii;
    class       polyBoundaryMesh;
    location    "constant/polyMesh";
    object      boundary;
}
// * * * * * * * * * * * * * * * * * * * * * * * * * * * * * * * * * * * * * //

7
(
    bottom
    {
        type            wall;
        inGroups        1(wall);
        nFaces          0;
        startFace       760;
    }
    top
    {
        type            wall;
        inGroups        1(wall);
        nFaces          20;
        startFace       760;
    }
    left
    {
        type            wall;
        inGroups        1(wall);
        nFaces          0;
        startFace       780;
    }
    right
    {
        type            wall;
        inGroups        1(wall);
        nFaces          20;
        startFace       780;
    }
    frontAndBack
    {
        type            empty;
        inGroups        1(empty);
        nFaces          800;
        startFace       800;
    }
    procBoundary3to1
    {
        type            processor;
        inGroups        1(processor);
        nFaces          20;
        startFace       1600;
        matchTolerance  0.0001;
        transform       unknown;
        myProcNo        3;
        neighbProcNo    1;
    }
    procBoundary3to2
    {
        type            processor;
        inGroups        1(processor);
        nFaces          20;
        startFace       1620;
        matchTolerance  0.0001;
        transform       unknown;
        myProcNo        3;
        neighbProcNo    2;
    }
)

// ************************************************************************* //
