/*--------------------------------*- C++ -*----------------------------------*\
| =========                 |                                                 |
| \\      /  F ield         | OpenFOAM: The Open Source CFD Toolbox           |
|  \\    /   O peration     | Version:  2.3.0                                 |
|   \\  /    A nd           | Web:      www.OpenFOAM.org                      |
|    \\/     M anipulation  |                                                 |
\*---------------------------------------------------------------------------*/
FoamFile
{
    version     2.0;
    format      ascii;
    class       volScalarField;
    location    "0";
    object      V;
}
// * * * * * * * * * * * * * * * * * * * * * * * * * * * * * * * * * * * * * //

dimensions      [0 3 0 0 0 0 0];

internalField   uniform 2.5e-05;

boundaryField
{
    bottom
    {
        type            calculated;
        value           uniform 0.005;
    }
    top
    {
        type            calculated;
        value           uniform 0.005;
    }
    left
    {
        type            calculated;
        value           uniform 0.005;
    }
    right
    {
        type            calculated;
        value           uniform 0.005;
    }
    frontAndBack
    {
        type            empty;
    }
    procBoundary3to1
    {
        type            processor;
        value           uniform 2.5e-05;
    }
    procBoundary3to2
    {
        type            processor;
        value           uniform 2.5e-05;
    }
}


// ************************************************************************* //
